  
       XFOIL         Version 6.99
  
 Calculated polar for: 2D: iter4                                       
  
 1 1 Reynolds number fixed          Mach number fixed         
  
 xtrf =   1.000 (top)        1.000 (bottom)  
 Mach =   0.300     Re =     2.600 e 6     Ncrit =   9.000
  
   alpha    CL        CD       CDp       CM     Top_Xtr  Bot_Xtr
  ------ -------- --------- --------- -------- -------- --------
   2.000   1.3502   0.00705   0.00202  -0.2563   0.5107   0.1588
