  
       XFOIL         Version 6.99
  
 Calculated polar for: 2D: iter2                                       
  
 1 1 Reynolds number fixed          Mach number fixed         
  
 xtrf =   1.000 (top)        1.000 (bottom)  
 Mach =   0.129     Re =     1.280 e 6     Ncrit =   9.000
  
   alpha    CL        CD       CDp       CM     Top_Xtr  Bot_Xtr
  ------ -------- --------- --------- -------- -------- --------
   3.733   1.3867   0.02555   0.01833  -0.2892   0.0026   0.6375
