  
       XFOIL         Version 6.99
  
 Calculated polar for: 2D: iter3                                       
  
 1 1 Reynolds number fixed          Mach number fixed         
  
 xtrf =   1.000 (top)        1.000 (bottom)  
 Mach =   0.100     Re =     0.022 e 6     Ncrit =   9.000
  
   alpha    CL        CD       CDp       CM     Top_Xtr  Bot_Xtr
  ------ -------- --------- --------- -------- -------- --------
   1.603   0.0332   0.04681   0.03665  -0.0628   1.0000   0.8111
