  
       XFOIL         Version 6.99
  
 Calculated polar for: 2D: iter4                                       
  
 1 1 Reynolds number fixed          Mach number fixed         
  
 xtrf =   1.000 (top)        1.000 (bottom)  
 Mach =   0.100     Re =     0.267 e 6     Ncrit =   9.000
  
   alpha    CL        CD       CDp       CM     Top_Xtr  Bot_Xtr
  ------ -------- --------- --------- -------- -------- --------
   2.680   1.3994   0.01448   0.00914  -0.2806   0.8015   1.0000
