  
       XFOIL         Version 6.99
  
 Calculated polar for: 2D: iter21                                      
  
 1 1 Reynolds number fixed          Mach number fixed         
  
 xtrf =   1.000 (top)        1.000 (bottom)  
 Mach =   0.100     Re =     0.850 e 6     Ncrit =   9.000
  
   alpha    CL        CD       CDp       CM     Top_Xtr  Bot_Xtr
  ------ -------- --------- --------- -------- -------- --------
   0.000   1.3434   0.01052   0.00649  -0.3687   0.8817   0.4688
